0 0 0 0 0 0 0 0 0 0 0 0 0 0 0 0 
0 0 0 0 0 0 0 0 0 0 0 0 0 0 0 0 

*** ChampSim Multicore Out-of-Order Simulator ***

Warmup Instructions: 1000000
Simulation Instructions: 11000000
Number of CPUs: 2
LLC sets: 4096
LLC ways: 16
Off-chip DRAM Size: 4096 MB Channels: 1 Width: 64-bit Data Rate: 3200 MT/s

CPU 0 runs /mnt/c/Users/aksha/OneDrive/Desktop/PROJECT/CS204-Project/dpc3_traces/gcc_13B.trace.xz
CPU 1 runs /mnt/c/Users/aksha/OneDrive/Desktop/PROJECT/CS204-Project/dpc3_traces/gcc_13B.trace.xz
CPU 0 Bimodal branch predictor
CPU 1 Bimodal branch predictor

Warmup complete CPU 0 instructions: 1000791 cycles: 556526 (Simulation time: 0 hr 0 min 7 sec) 
Warmup complete CPU 1 instructions: 1000003 cycles: 556526 (Simulation time: 0 hr 0 min 7 sec) 

Partitions changing!
Partitions changed!
EXTRA: 1 DEFICIENT: 1
0 0 0 0 0 0 0 0 0 1 0 0 0 0 0 0 
0 0 0 0 0 0 0 0 0 1 0 0 0 0 0 0 
0 0 0 0 0 0 0 0 0 0 1 0 0 0 0 0 
0 0 0 0 0 0 0 0 0 0 0 0 0 1 0 0 
0 0 0 0 0 0 0 0 0 1 0 0 0 0 0 0 


Partitions changing!
Partitions changed!
EXTRA: 1 DEFICIENT: 1
1 1 1 1 1 1 1 1 1 1 1 1 1 1 0 1 
1 1 1 1 1 1 1 1 1 1 1 1 1 1 1 0 
1 0 1 1 1 1 1 1 1 1 1 1 1 1 1 1 
1 1 1 0 1 1 1 1 1 1 1 1 1 1 1 1 
1 1 0 1 1 1 1 1 1 1 1 1 1 1 1 1 


Partitions changing!
Partitions changed!
EXTRA: 1 DEFICIENT: 1
0 0 0 0 0 1 0 0 0 0 0 0 0 0 0 0 
0 0 0 0 0 1 0 0 0 0 0 0 0 0 0 0 
0 0 0 0 0 0 1 0 0 0 0 0 0 0 0 0 
0 0 0 0 0 0 1 0 0 0 0 0 0 0 0 0 
0 0 0 0 0 0 1 0 0 0 0 0 0 0 0 0 


Partitions changing!
Partitions changed!
EXTRA: 0 DEFICIENT: 0
0 0 0 0 0 1 0 0 0 0 0 0 0 0 0 0 
0 0 0 0 0 1 0 0 0 0 0 0 0 0 0 0 
0 0 0 0 0 0 1 0 0 0 0 0 0 0 0 0 
0 0 0 0 0 0 1 0 0 0 0 0 0 0 0 0 
0 0 0 0 0 0 1 0 0 0 0 0 0 0 0 0 


Partitions changing!
Partitions changed!
EXTRA: 0 DEFICIENT: 0
0 0 0 0 0 1 0 0 0 0 0 0 0 0 0 0 
0 0 0 0 0 1 0 0 0 0 0 0 0 0 0 0 
0 0 0 0 0 0 1 0 0 0 0 0 0 0 0 0 
0 0 0 0 0 0 1 0 0 0 0 0 0 0 0 0 
0 0 0 0 0 0 1 0 0 0 0 0 0 0 0 0 


Partitions changing!
Partitions changed!
EXTRA: 0 DEFICIENT: 0
0 0 0 0 0 1 0 0 0 0 0 0 0 0 0 0 
0 0 0 0 0 1 0 0 0 0 0 0 0 0 0 0 
0 0 0 0 0 0 1 0 0 0 0 0 0 0 0 0 
0 0 0 0 0 0 1 0 0 0 0 0 0 0 0 0 
0 0 0 0 0 0 1 0 0 0 0 0 0 0 0 0 


Partitions changing!
Partitions changed!
EXTRA: 0 DEFICIENT: 0
0 0 0 0 0 1 0 0 0 0 0 0 0 0 0 0 
0 0 0 0 0 1 0 0 0 0 0 0 0 0 0 0 
0 0 0 0 0 0 1 0 0 0 0 0 0 0 0 0 
0 0 0 0 0 0 1 0 0 0 0 0 0 0 0 0 
0 0 0 0 0 0 1 0 0 0 0 0 0 0 0 0 


Partitions changing!
Partitions changed!
EXTRA: 1 DEFICIENT: 1
0 0 0 0 0 1 0 0 0 0 1 0 0 1 0 0 
1 1 0 0 0 1 0 0 0 0 0 0 0 0 0 0 
0 0 0 0 0 0 1 0 1 0 0 0 0 1 0 0 
0 0 0 0 0 0 1 0 1 0 0 0 1 0 0 0 
0 0 0 0 0 0 1 0 0 0 0 0 0 0 1 1 


Partitions changing!
Partitions changed!
EXTRA: 0 DEFICIENT: 0
0 0 0 0 0 1 0 0 0 0 1 0 0 1 0 0 
1 1 0 0 0 1 0 0 0 0 0 0 0 0 0 0 
0 0 0 0 0 0 1 0 1 0 0 0 0 1 0 0 
0 0 0 0 0 0 1 0 1 0 0 0 1 0 0 0 
0 0 0 0 0 0 1 0 0 0 0 0 0 0 1 1 


Partitions changing!
Partitions changed!
EXTRA: 1 DEFICIENT: 1
0 0 0 0 0 1 0 0 0 0 1 0 0 0 0 0 
0 1 0 0 0 1 0 0 0 0 0 0 0 0 0 0 
0 0 0 0 0 0 1 0 1 0 0 0 0 0 0 0 
0 0 0 0 0 0 1 0 0 0 0 0 1 0 0 0 
0 0 0 0 0 0 1 0 0 0 0 0 0 0 1 0 


Heartbeat CPU 0 instructions: 10000002 cycles: 52474869 heartbeat IPC: 0.190567 cumulative IPC: 0.173334 (Simulation time: 0 hr 1 min 43 sec) 
Heartbeat CPU 1 instructions: 10000002 cycles: 53841827 heartbeat IPC: 0.185729 cumulative IPC: 0.168902 (Simulation time: 0 hr 1 min 45 sec) 
Partitions changing!
Partitions changed!
EXTRA: 1 DEFICIENT: 1
0 0 0 0 0 1 0 0 1 1 1 1 1 0 0 1 
0 1 0 1 1 1 1 1 1 0 0 0 0 0 0 0 
1 1 1 0 1 0 1 0 1 0 0 0 0 0 1 0 
0 0 1 0 0 1 1 1 0 1 0 1 1 0 0 0 
0 0 0 0 0 1 1 0 0 1 1 0 1 1 1 0 


Partitions changing!
Partitions changed!
EXTRA: 1 DEFICIENT: 1
0 0 0 0 0 1 0 0 1 1 1 1 1 1 0 1 
0 1 1 1 1 1 1 1 1 0 0 0 0 0 0 0 
1 1 1 0 1 0 1 0 1 0 0 0 1 0 1 0 
0 0 1 0 0 1 1 1 1 1 0 1 1 0 0 0 
0 0 0 0 1 1 1 0 0 1 1 0 1 1 1 0 


Partitions changing!
Partitions changed!
EXTRA: 1 DEFICIENT: 1
0 0 0 0 0 0 0 0 0 0 0 1 0 0 0 0 
0 0 0 0 0 1 0 0 0 0 0 0 0 0 0 0 
0 0 0 0 1 0 0 0 0 0 0 0 0 0 0 0 
0 0 0 0 0 0 0 0 0 1 0 0 0 0 0 0 
0 0 0 0 0 0 0 0 0 0 0 0 0 1 0 0 


Finished CPU 0 instructions: 11000003 cycles: 68690737 cumulative IPC: 0.160138 (Simulation time: 0 hr 2 min 9 sec) 
Partitions changing!
Partitions changed!
EXTRA: 1 DEFICIENT: 1
1 0 1 1 1 0 1 1 0 0 0 1 0 0 1 0 
0 0 0 0 0 1 1 1 1 1 0 1 0 1 0 1 
1 0 0 1 1 1 0 1 0 1 1 0 0 0 0 1 
1 1 0 1 0 0 0 0 0 1 0 1 1 0 1 1 
0 1 0 1 0 0 0 1 1 0 0 0 1 1 1 1 


Finished CPU 1 instructions: 11000000 cycles: 69856232 cumulative IPC: 0.157466 (Simulation time: 0 hr 2 min 10 sec) 

ChampSim completed all CPUs

Total Simulation Statistics (not including warmup)

CPU 0 cumulative IPC: 0.159736 instructions: 11158590 cycles: 69856232
L1D TOTAL     ACCESS:    2628566  HIT:    2118900  MISS:     509666
L1D LOAD      ACCESS:    1556324  HIT:    1213552  MISS:     342772
L1D RFO       ACCESS:    1072242  HIT:     905348  MISS:     166894
L1D PREFETCH  ACCESS:          0  HIT:          0  MISS:          0
L1D WRITEBACK ACCESS:          0  HIT:          0  MISS:          0
L1I TOTAL     ACCESS:    2017828  HIT:    2017736  MISS:         92
L1I LOAD      ACCESS:    2017828  HIT:    2017736  MISS:         92
L1I RFO       ACCESS:          0  HIT:          0  MISS:          0
L1I PREFETCH  ACCESS:          0  HIT:          0  MISS:          0
L1I WRITEBACK ACCESS:          0  HIT:          0  MISS:          0
L2C TOTAL     ACCESS:     750919  HIT:     251698  MISS:     499221
L2C LOAD      ACCESS:     342864  HIT:      10210  MISS:     332654
L2C RFO       ACCESS:     166894  HIT:        339  MISS:     166555
L2C PREFETCH  ACCESS:          0  HIT:          0  MISS:          0
L2C WRITEBACK ACCESS:     241161  HIT:     241149  MISS:         12
LLC TOTAL     ACCESS:     743559  HIT:     250824  MISS:     492735
LLC LOAD      ACCESS:     332654  HIT:      19110  MISS:     313544
LLC RFO       ACCESS:     166555  HIT:       4695  MISS:     161860
LLC PREFETCH  ACCESS:          0  HIT:          0  MISS:          0
LLC WRITEBACK ACCESS:     244350  HIT:     227019  MISS:      17331

CPU 1 cumulative IPC: 0.157466 instructions: 11000000 cycles: 69856232
L1D TOTAL     ACCESS:    2577256  HIT:    2073476  MISS:     503780
L1D LOAD      ACCESS:    1520817  HIT:    1184092  MISS:     336725
L1D RFO       ACCESS:    1056439  HIT:     889384  MISS:     167055
L1D PREFETCH  ACCESS:          0  HIT:          0  MISS:          0
L1D WRITEBACK ACCESS:          0  HIT:          0  MISS:          0
L1I TOTAL     ACCESS:    1989934  HIT:    1989842  MISS:         92
L1I LOAD      ACCESS:    1989934  HIT:    1989842  MISS:         92
L1I RFO       ACCESS:          0  HIT:          0  MISS:          0
L1I PREFETCH  ACCESS:          0  HIT:          0  MISS:          0
L1I WRITEBACK ACCESS:          0  HIT:          0  MISS:          0
L2C TOTAL     ACCESS:     744967  HIT:     251468  MISS:     493499
L2C LOAD      ACCESS:     336817  HIT:      10077  MISS:     326740
L2C RFO       ACCESS:     167055  HIT:        306  MISS:     166749
L2C PREFETCH  ACCESS:          0  HIT:          0  MISS:          0
L2C WRITEBACK ACCESS:     241095  HIT:     241085  MISS:         10
LLC TOTAL     ACCESS:     737673  HIT:      95707  MISS:     641966
LLC LOAD      ACCESS:     326740  HIT:       2455  MISS:     324285
LLC RFO       ACCESS:     166749  HIT:        120  MISS:     166629
LLC PREFETCH  ACCESS:          0  HIT:          0  MISS:          0
LLC WRITEBACK ACCESS:     244184  HIT:      93132  MISS:     151052

Region of Interest Statistics

CPU 0 cumulative IPC: 0.160138 instructions: 11000003 cycles: 68690737
L1D TOTAL     ACCESS:    2577157  HIT:    2073403  MISS:     503754
L1D LOAD      ACCESS:    1520744  HIT:    1183884  MISS:     336860
L1D RFO       ACCESS:    1056413  HIT:     889519  MISS:     166894
L1D PREFETCH  ACCESS:          0  HIT:          0  MISS:          0
L1D WRITEBACK ACCESS:          0  HIT:          0  MISS:          0
L1D PREFETCH  REQUESTED:          0  ISSUED:          0  USEFUL:          0  USELESS:          0
L1D AVERAGE MISS LATENCY: 317.042 cycles
L1I TOTAL     ACCESS:    1989148  HIT:    1989056  MISS:         92
L1I LOAD      ACCESS:    1989148  HIT:    1989056  MISS:         92
L1I RFO       ACCESS:          0  HIT:          0  MISS:          0
L1I PREFETCH  ACCESS:          0  HIT:          0  MISS:          0
L1I WRITEBACK ACCESS:          0  HIT:          0  MISS:          0
L1I PREFETCH  REQUESTED:          0  ISSUED:          0  USEFUL:          0  USELESS:          0
L1I AVERAGE MISS LATENCY: 295.217 cycles
L2C TOTAL     ACCESS:     744846  HIT:     251487  MISS:     493359
L2C LOAD      ACCESS:     336952  HIT:      10160  MISS:     326792
L2C RFO       ACCESS:     166894  HIT:        339  MISS:     166555
L2C PREFETCH  ACCESS:          0  HIT:          0  MISS:          0
L2C WRITEBACK ACCESS:     241000  HIT:     240988  MISS:         12
L2C PREFETCH  REQUESTED:          0  ISSUED:          0  USEFUL:          0  USELESS:          0
L2C AVERAGE MISS LATENCY: 307.305 cycles
LLC TOTAL     ACCESS:     737540  HIT:     250663  MISS:     486877
LLC LOAD      ACCESS:     326792  HIT:      19106  MISS:     307686
LLC RFO       ACCESS:     166555  HIT:       4695  MISS:     161860
LLC PREFETCH  ACCESS:          0  HIT:          0  MISS:          0
LLC WRITEBACK ACCESS:     244193  HIT:     226862  MISS:      17331
LLC PREFETCH  REQUESTED:          0  ISSUED:          0  USEFUL:          0  USELESS:          0
LLC AVERAGE MISS LATENCY: 576.048 cycles
Major fault: 0 Minor fault: 11526

CPU 1 cumulative IPC: 0.157466 instructions: 11000000 cycles: 69856232
L1D TOTAL     ACCESS:    2577256  HIT:    2073476  MISS:     503780
L1D LOAD      ACCESS:    1520817  HIT:    1184092  MISS:     336725
L1D RFO       ACCESS:    1056439  HIT:     889384  MISS:     167055
L1D PREFETCH  ACCESS:          0  HIT:          0  MISS:          0
L1D WRITEBACK ACCESS:          0  HIT:          0  MISS:          0
L1D PREFETCH  REQUESTED:          0  ISSUED:          0  USEFUL:          0  USELESS:          0
L1D AVERAGE MISS LATENCY: 331.909 cycles
L1I TOTAL     ACCESS:    1989934  HIT:    1989842  MISS:         92
L1I LOAD      ACCESS:    1989934  HIT:    1989842  MISS:         92
L1I RFO       ACCESS:          0  HIT:          0  MISS:          0
L1I PREFETCH  ACCESS:          0  HIT:          0  MISS:          0
L1I WRITEBACK ACCESS:          0  HIT:          0  MISS:          0
L1I PREFETCH  REQUESTED:          0  ISSUED:          0  USEFUL:          0  USELESS:          0
L1I AVERAGE MISS LATENCY: 495.315 cycles
L2C TOTAL     ACCESS:     744967  HIT:     251468  MISS:     493499
L2C LOAD      ACCESS:     336817  HIT:      10077  MISS:     326740
L2C RFO       ACCESS:     167055  HIT:        306  MISS:     166749
L2C PREFETCH  ACCESS:          0  HIT:          0  MISS:          0
L2C WRITEBACK ACCESS:     241095  HIT:     241085  MISS:         10
L2C PREFETCH  REQUESTED:          0  ISSUED:          0  USEFUL:          0  USELESS:          0
L2C AVERAGE MISS LATENCY: 322.626 cycles
LLC TOTAL     ACCESS:     737673  HIT:      95707  MISS:     641966
LLC LOAD      ACCESS:     326740  HIT:       2455  MISS:     324285
LLC RFO       ACCESS:     166749  HIT:        120  MISS:     166629
LLC PREFETCH  ACCESS:          0  HIT:          0  MISS:          0
LLC WRITEBACK ACCESS:     244184  HIT:      93132  MISS:     151052
LLC PREFETCH  REQUESTED:          0  ISSUED:          0  USEFUL:          0  USELESS:          0
LLC AVERAGE MISS LATENCY: 436.884 cycles
Major fault: 0 Minor fault: 11304

DRAM Statistics
 CHANNEL 0
 RQ ROW_BUFFER_HIT:     206385  ROW_BUFFER_MISS:     759920
 DBUS_CONGESTED:     733310
 WQ ROW_BUFFER_HIT:     184072  ROW_BUFFER_MISS:     312283  FULL:      16894

 AVG_CONGESTED_CYCLE: 6

CPU 0 Branch Prediction Accuracy: 93.9458% MPKI: 11.8259 Average ROB Occupancy at Mispredict: 72.1413

Branch types
NOT_BRANCH: 8978846 80.4658%
BRANCH_DIRECT_JUMP: 67424 0.604234%
BRANCH_INDIRECT: 32098 0.287653%
BRANCH_CONDITIONAL: 1890395 16.9412%
BRANCH_DIRECT_CALL: 94952 0.850932%
BRANCH_INDIRECT_CALL: 0 0%
BRANCH_RETURN: 94954 0.85095%
BRANCH_OTHER: 0 0%


CPU 1 Branch Prediction Accuracy: 94.0242% MPKI: 11.608 Average ROB Occupancy at Mispredict: 73.7832

Branch types
NOT_BRANCH: 8862916 80.572%
BRANCH_DIRECT_JUMP: 64201 0.583645%
BRANCH_INDIRECT: 30318 0.275618%
BRANCH_CONDITIONAL: 1857338 16.8849%
BRANCH_DIRECT_CALL: 92441 0.840373%
BRANCH_INDIRECT_CALL: 0 0%
BRANCH_RETURN: 92443 0.840391%
BRANCH_OTHER: 0 0%

