0 0 0 0 0 0 0 0 0 0 0 0 0 0 0 0 
0 0 0 0 0 0 0 0 0 0 0 0 0 0 0 0 

*** ChampSim Multicore Out-of-Order Simulator ***

Warmup Instructions: 50000000
Simulation Instructions: 100000000
Number of CPUs: 2
LLC sets: 4096
LLC ways: 16
Off-chip DRAM Size: 4096 MB Channels: 1 Width: 64-bit Data Rate: 3200 MT/s

CPU 0 runs /home/prathamkundan/MAIN/ChampSim/dpc3_traces/bzip2_281B.trace.xz
CPU 1 runs /home/prathamkundan/MAIN/ChampSim/dpc3_traces/lbm_1004B.trace.xz
CPU 0 Bimodal branch predictor
CPU 1 Bimodal branch predictor
Heartbeat CPU 1 instructions: 10000002 cycles: 3153720 heartbeat IPC: 3.17086 cumulative IPC: 3.17086 (Simulation time: 0 hr 0 min 49 sec) 
Heartbeat CPU 0 instructions: 10000003 cycles: 3930176 heartbeat IPC: 2.54442 cumulative IPC: 2.54442 (Simulation time: 0 hr 1 min 2 sec) 
Partitions changing!
Partitions changed!
EXTRA: 1 DEFICIENT: 1
1 0 0 0 0 0 0 0 1 1 1 1 1 1 1 1 
0 0 0 0 0 0 0 1 1 1 1 1 1 1 1 1 
0 0 0 0 0 0 0 1 1 1 1 1 1 1 1 1 
0 1 0 0 0 0 0 0 1 1 1 1 1 1 1 1 
0 0 0 1 0 0 0 0 1 1 1 1 1 1 1 1 


Heartbeat CPU 1 instructions: 20000002 cycles: 6308589 heartbeat IPC: 3.1697 cumulative IPC: 3.17028 (Simulation time: 0 hr 1 min 39 sec) 
Heartbeat CPU 0 instructions: 20000001 cycles: 7661499 heartbeat IPC: 2.68001 cumulative IPC: 2.61046 (Simulation time: 0 hr 2 min 2 sec) 
Heartbeat CPU 1 instructions: 30000002 cycles: 9463390 heartbeat IPC: 3.16977 cumulative IPC: 3.17011 (Simulation time: 0 hr 2 min 29 sec) 
Partitions changing!
Partitions changed!
EXTRA: 1 DEFICIENT: 1
0 0 0 0 0 0 0 0 0 1 1 0 0 0 0 0 
0 0 0 0 0 0 0 0 0 1 1 0 0 0 0 0 
0 0 0 0 0 0 0 0 0 1 1 0 0 0 0 0 
0 0 0 0 0 0 0 0 0 1 1 0 0 0 0 0 
0 0 0 0 0 0 0 0 0 1 1 0 0 0 0 0 


Heartbeat CPU 0 instructions: 30000001 cycles: 11213059 heartbeat IPC: 2.81566 cumulative IPC: 2.67545 (Simulation time: 0 hr 2 min 54 sec) 
Heartbeat CPU 1 instructions: 40000003 cycles: 12617239 heartbeat IPC: 3.17073 cumulative IPC: 3.17027 (Simulation time: 0 hr 3 min 15 sec) 
Heartbeat CPU 0 instructions: 40000002 cycles: 14154197 heartbeat IPC: 3.40004 cumulative IPC: 2.82602 (Simulation time: 0 hr 3 min 37 sec) 
Partitions changing!
Partitions changed!
EXTRA: 0 DEFICIENT: 0
0 0 0 0 0 0 0 0 0 1 1 0 0 0 0 0 
0 0 0 0 0 0 0 0 0 1 1 0 0 0 0 0 
0 0 0 0 0 0 0 0 0 1 1 0 0 0 0 0 
0 0 0 0 0 0 0 0 0 1 1 0 0 0 0 0 
0 0 0 0 0 0 0 0 0 1 1 0 0 0 0 0 


Heartbeat CPU 1 instructions: 50000000 cycles: 15773895 heartbeat IPC: 3.16791 cumulative IPC: 3.16979 (Simulation time: 0 hr 4 min 2 sec) 
Heartbeat CPU 0 instructions: 50000002 cycles: 17039133 heartbeat IPC: 3.46628 cumulative IPC: 2.93442 (Simulation time: 0 hr 4 min 21 sec) 

Warmup complete CPU 0 instructions: 50000002 cycles: 17039133 (Simulation time: 0 hr 4 min 21 sec) 
Warmup complete CPU 1 instructions: 54014445 cycles: 17039132 (Simulation time: 0 hr 4 min 21 sec) 

Partitions changing!
Partitions changed!
EXTRA: 1 DEFICIENT: 1
0 0 0 0 0 0 0 0 0 0 1 0 0 0 0 0 
0 0 0 0 0 0 0 0 0 1 0 0 0 0 0 0 
0 0 0 0 0 0 0 0 0 0 1 0 0 0 0 0 
0 0 0 0 0 0 0 0 0 0 1 0 0 0 0 0 
0 0 0 0 0 0 0 0 0 1 0 0 0 0 0 0 


Partitions changing!
Partitions changed!
EXTRA: 0 DEFICIENT: 0
0 0 0 0 0 0 0 0 0 0 1 0 0 0 0 0 
0 0 0 0 0 0 0 0 0 1 0 0 0 0 0 0 
0 0 0 0 0 0 0 0 0 0 1 0 0 0 0 0 
0 0 0 0 0 0 0 0 0 0 1 0 0 0 0 0 
0 0 0 0 0 0 0 0 0 1 0 0 0 0 0 0 


Heartbeat CPU 1 instructions: 60000000 cycles: 27423291 heartbeat IPC: 0.858414 cumulative IPC: 0.576412 (Simulation time: 0 hr 5 min 3 sec) 
Partitions changing!
Partitions changed!
EXTRA: 0 DEFICIENT: 0
0 0 0 0 0 0 0 0 0 0 1 0 0 0 0 0 
0 0 0 0 0 0 0 0 0 1 0 0 0 0 0 0 
0 0 0 0 0 0 0 0 0 0 1 0 0 0 0 0 
0 0 0 0 0 0 0 0 0 0 1 0 0 0 0 0 
0 0 0 0 0 0 0 0 0 1 0 0 0 0 0 0 


Heartbeat CPU 0 instructions: 60000000 cycles: 33114766 heartbeat IPC: 0.622059 cumulative IPC: 0.622059 (Simulation time: 0 hr 5 min 26 sec) 
Partitions changing!
Partitions changed!
EXTRA: 0 DEFICIENT: 0
0 0 0 0 0 0 0 0 0 0 1 0 0 0 0 0 
0 0 0 0 0 0 0 0 0 1 0 0 0 0 0 0 
0 0 0 0 0 0 0 0 0 0 1 0 0 0 0 0 
0 0 0 0 0 0 0 0 0 0 1 0 0 0 0 0 
0 0 0 0 0 0 0 0 0 1 0 0 0 0 0 0 


Partitions changing!
Partitions changed!
EXTRA: 0 DEFICIENT: 0
0 0 0 0 0 0 0 0 0 0 1 0 0 0 0 0 
0 0 0 0 0 0 0 0 0 1 0 0 0 0 0 0 
0 0 0 0 0 0 0 0 0 0 1 0 0 0 0 0 
0 0 0 0 0 0 0 0 0 0 1 0 0 0 0 0 
0 0 0 0 0 0 0 0 0 1 0 0 0 0 0 0 


Heartbeat CPU 0 instructions: 70000003 cycles: 41257876 heartbeat IPC: 1.22803 cumulative IPC: 0.825807 (Simulation time: 0 hr 6 min 11 sec) 
Heartbeat CPU 1 instructions: 70000000 cycles: 44195357 heartbeat IPC: 0.596229 cumulative IPC: 0.588652 (Simulation time: 0 hr 6 min 27 sec) 
Partitions changing!
Partitions changed!
EXTRA: 0 DEFICIENT: 0
0 0 0 0 0 0 0 0 0 0 1 0 0 0 0 0 
0 0 0 0 0 0 0 0 0 1 0 0 0 0 0 0 
0 0 0 0 0 0 0 0 0 0 1 0 0 0 0 0 
0 0 0 0 0 0 0 0 0 0 1 0 0 0 0 0 
0 0 0 0 0 0 0 0 0 1 0 0 0 0 0 0 


Heartbeat CPU 0 instructions: 80000000 cycles: 49132650 heartbeat IPC: 1.26988 cumulative IPC: 0.934768 (Simulation time: 0 hr 6 min 54 sec) 
Partitions changing!
Partitions changed!
EXTRA: 0 DEFICIENT: 0
0 0 0 0 0 0 0 0 0 0 1 0 0 0 0 0 
0 0 0 0 0 0 0 0 0 1 0 0 0 0 0 0 
0 0 0 0 0 0 0 0 0 0 1 0 0 0 0 0 
0 0 0 0 0 0 0 0 0 0 1 0 0 0 0 0 
0 0 0 0 0 0 0 0 0 1 0 0 0 0 0 0 


Partitions changing!
Partitions changed!
EXTRA: 0 DEFICIENT: 0
0 0 0 0 0 0 0 0 0 0 1 0 0 0 0 0 
0 0 0 0 0 0 0 0 0 1 0 0 0 0 0 0 
0 0 0 0 0 0 0 0 0 0 1 0 0 0 0 0 
0 0 0 0 0 0 0 0 0 0 1 0 0 0 0 0 
0 0 0 0 0 0 0 0 0 1 0 0 0 0 0 0 


Heartbeat CPU 0 instructions: 90000002 cycles: 57222618 heartbeat IPC: 1.2361 cumulative IPC: 0.995434 (Simulation time: 0 hr 7 min 24 sec) 
Partitions changing!
Partitions changed!
EXTRA: 0 DEFICIENT: 0
0 0 0 0 0 0 0 0 0 0 1 0 0 0 0 0 
0 0 0 0 0 0 0 0 0 1 0 0 0 0 0 0 
0 0 0 0 0 0 0 0 0 0 1 0 0 0 0 0 
0 0 0 0 0 0 0 0 0 0 1 0 0 0 0 0 
0 0 0 0 0 0 0 0 0 1 0 0 0 0 0 0 


Partitions changing!
Partitions changed!
EXTRA: 1 DEFICIENT: 1
0 0 0 0 0 0 0 0 0 1 1 0 0 1 1 1 
0 0 0 0 0 0 1 0 0 1 1 0 0 0 1 1 
0 0 0 0 0 0 0 0 0 1 1 0 0 1 1 1 
0 0 0 0 0 0 0 0 0 1 1 0 0 1 1 1 
0 0 0 0 0 0 0 0 0 1 1 0 0 1 1 1 


Heartbeat CPU 0 instructions: 100000001 cycles: 65556764 heartbeat IPC: 1.19988 cumulative IPC: 1.03055 (Simulation time: 0 hr 7 min 59 sec) 
Partitions changing!
Partitions changed!
EXTRA: 1 DEFICIENT: 1
0 0 0 0 0 0 0 0 0 1 1 0 0 1 0 1 
0 0 0 0 0 0 1 0 0 1 1 0 0 0 0 1 
0 0 0 0 0 0 0 0 0 1 1 0 0 1 0 1 
0 0 0 0 0 0 0 0 0 1 1 0 0 1 0 1 
0 0 0 0 0 0 0 0 0 1 1 0 0 1 0 1 


Heartbeat CPU 1 instructions: 80000001 cycles: 72569511 heartbeat IPC: 0.352433 cumulative IPC: 0.467952 (Simulation time: 0 hr 8 min 29 sec) 
Heartbeat CPU 0 instructions: 110000000 cycles: 73672016 heartbeat IPC: 1.23225 cumulative IPC: 1.05946 (Simulation time: 0 hr 8 min 34 sec) 
Partitions changing!
Partitions changed!
EXTRA: 0 DEFICIENT: 0
0 0 0 0 0 0 0 0 0 1 1 0 0 1 0 1 
0 0 0 0 0 0 1 0 0 1 1 0 0 0 0 1 
0 0 0 0 0 0 0 0 0 1 1 0 0 1 0 1 
0 0 0 0 0 0 0 0 0 1 1 0 0 1 0 1 
0 0 0 0 0 0 0 0 0 1 1 0 0 1 0 1 


Partitions changing!
Partitions changed!
EXTRA: 0 DEFICIENT: 0
0 0 0 0 0 0 0 0 0 1 1 0 0 1 0 1 
0 0 0 0 0 0 1 0 0 1 1 0 0 0 0 1 
0 0 0 0 0 0 0 0 0 1 1 0 0 1 0 1 
0 0 0 0 0 0 0 0 0 1 1 0 0 1 0 1 
0 0 0 0 0 0 0 0 0 1 1 0 0 1 0 1 


Heartbeat CPU 0 instructions: 120000003 cycles: 81632597 heartbeat IPC: 1.25619 cumulative IPC: 1.0837 (Simulation time: 0 hr 9 min 8 sec) 
Partitions changing!
Partitions changed!
EXTRA: 0 DEFICIENT: 0
0 0 0 0 0 0 0 0 0 1 1 0 0 1 0 1 
0 0 0 0 0 0 1 0 0 1 1 0 0 0 0 1 
0 0 0 0 0 0 0 0 0 1 1 0 0 1 0 1 
0 0 0 0 0 0 0 0 0 1 1 0 0 1 0 1 
0 0 0 0 0 0 0 0 0 1 1 0 0 1 0 1 


Heartbeat CPU 1 instructions: 90000002 cycles: 89457927 heartbeat IPC: 0.592122 cumulative IPC: 0.496909 (Simulation time: 0 hr 9 min 41 sec) 
Heartbeat CPU 0 instructions: 130000001 cycles: 89661532 heartbeat IPC: 1.24549 cumulative IPC: 1.10159 (Simulation time: 0 hr 9 min 42 sec) 
Partitions changing!
Partitions changed!
EXTRA: 0 DEFICIENT: 0
0 0 0 0 0 0 0 0 0 1 1 0 0 1 0 1 
0 0 0 0 0 0 1 0 0 1 1 0 0 0 0 1 
0 0 0 0 0 0 0 0 0 1 1 0 0 1 0 1 
0 0 0 0 0 0 0 0 0 1 1 0 0 1 0 1 
0 0 0 0 0 0 0 0 0 1 1 0 0 1 0 1 


Partitions changing!
Partitions changed!
EXTRA: 0 DEFICIENT: 0
0 0 0 0 0 0 0 0 0 1 1 0 0 1 0 1 
0 0 0 0 0 0 1 0 0 1 1 0 0 0 0 1 
0 0 0 0 0 0 0 0 0 1 1 0 0 1 0 1 
0 0 0 0 0 0 0 0 0 1 1 0 0 1 0 1 
0 0 0 0 0 0 0 0 0 1 1 0 0 1 0 1 


Heartbeat CPU 0 instructions: 140000002 cycles: 97309669 heartbeat IPC: 1.30751 cumulative IPC: 1.12121 (Simulation time: 0 hr 10 min 15 sec) 
Partitions changing!
Partitions changed!
EXTRA: 1 DEFICIENT: 1
0 0 0 0 0 0 0 0 0 1 0 0 0 0 0 0 
0 0 0 0 0 0 0 0 0 0 1 0 0 0 0 0 
0 0 0 0 0 0 0 0 0 0 0 0 0 1 0 0 
0 0 0 0 0 0 0 0 0 0 0 0 0 1 0 0 
0 0 0 0 0 0 0 0 0 1 0 0 0 0 0 0 


Partitions changing!
Partitions changed!
EXTRA: 0 DEFICIENT: 0
0 0 0 0 0 0 0 0 0 1 0 0 0 0 0 0 
0 0 0 0 0 0 0 0 0 0 1 0 0 0 0 0 
0 0 0 0 0 0 0 0 0 0 0 0 0 1 0 0 
0 0 0 0 0 0 0 0 0 0 0 0 0 1 0 0 
0 0 0 0 0 0 0 0 0 1 0 0 0 0 0 0 


Heartbeat CPU 0 instructions: 150000000 cycles: 105057015 heartbeat IPC: 1.29076 cumulative IPC: 1.13613 (Simulation time: 0 hr 10 min 46 sec) 
Finished CPU 0 instructions: 100000002 cycles: 88017887 cumulative IPC: 1.13613 (Simulation time: 0 hr 10 min 46 sec) 
Heartbeat CPU 1 instructions: 100000003 cycles: 108908600 heartbeat IPC: 0.514121 cumulative IPC: 0.500553 (Simulation time: 0 hr 11 min 1 sec) 
Partitions changing!
Partitions changed!
EXTRA: 0 DEFICIENT: 0
0 0 0 0 0 0 0 0 0 1 0 0 0 0 0 0 
0 0 0 0 0 0 0 0 0 0 1 0 0 0 0 0 
0 0 0 0 0 0 0 0 0 0 0 0 0 1 0 0 
0 0 0 0 0 0 0 0 0 0 0 0 0 1 0 0 
0 0 0 0 0 0 0 0 0 1 0 0 0 0 0 0 


Heartbeat CPU 0 instructions: 160000002 cycles: 114910946 heartbeat IPC: 1.01482 cumulative IPC: 1.12392 (Simulation time: 0 hr 11 min 22 sec) 
Partitions changing!
Partitions changed!
EXTRA: 0 DEFICIENT: 0
0 0 0 0 0 0 0 0 0 1 0 0 0 0 0 0 
0 0 0 0 0 0 0 0 0 0 1 0 0 0 0 0 
0 0 0 0 0 0 0 0 0 0 0 0 0 1 0 0 
0 0 0 0 0 0 0 0 0 0 0 0 0 1 0 0 
0 0 0 0 0 0 0 0 0 1 0 0 0 0 0 0 


Partitions changing!
Partitions changed!
EXTRA: 0 DEFICIENT: 0
0 0 0 0 0 0 0 0 0 1 0 0 0 0 0 0 
0 0 0 0 0 0 0 0 0 0 1 0 0 0 0 0 
0 0 0 0 0 0 0 0 0 0 0 0 0 1 0 0 
0 0 0 0 0 0 0 0 0 0 0 0 0 1 0 0 
0 0 0 0 0 0 0 0 0 1 0 0 0 0 0 0 


Partitions changing!
Partitions changed!
EXTRA: 0 DEFICIENT: 0
0 0 0 0 0 0 0 0 0 1 0 0 0 0 0 0 
0 0 0 0 0 0 0 0 0 0 1 0 0 0 0 0 
0 0 0 0 0 0 0 0 0 0 0 0 0 1 0 0 
0 0 0 0 0 0 0 0 0 0 0 0 0 1 0 0 
0 0 0 0 0 0 0 0 0 1 0 0 0 0 0 0 


Heartbeat CPU 0 instructions: 170000001 cycles: 127151454 heartbeat IPC: 0.81696 cumulative IPC: 1.0898 (Simulation time: 0 hr 12 min 4 sec) 
Heartbeat CPU 1 instructions: 110000000 cycles: 127754207 heartbeat IPC: 0.530627 cumulative IPC: 0.505672 (Simulation time: 0 hr 12 min 6 sec) 
Partitions changing!
Partitions changed!
EXTRA: 0 DEFICIENT: 0
0 0 0 0 0 0 0 0 0 1 0 0 0 0 0 0 
0 0 0 0 0 0 0 0 0 0 1 0 0 0 0 0 
0 0 0 0 0 0 0 0 0 0 0 0 0 1 0 0 
0 0 0 0 0 0 0 0 0 0 0 0 0 1 0 0 
0 0 0 0 0 0 0 0 0 1 0 0 0 0 0 0 


Partitions changing!
Partitions changed!
EXTRA: 0 DEFICIENT: 0
0 0 0 0 0 0 0 0 0 1 0 0 0 0 0 0 
0 0 0 0 0 0 0 0 0 0 1 0 0 0 0 0 
0 0 0 0 0 0 0 0 0 0 0 0 0 1 0 0 
0 0 0 0 0 0 0 0 0 0 0 0 0 1 0 0 
0 0 0 0 0 0 0 0 0 1 0 0 0 0 0 0 


Heartbeat CPU 0 instructions: 180000003 cycles: 137173992 heartbeat IPC: 0.997751 cumulative IPC: 1.08212 (Simulation time: 0 hr 12 min 39 sec) 
Partitions changing!
Partitions changed!
EXTRA: 0 DEFICIENT: 0
0 0 0 0 0 0 0 0 0 1 0 0 0 0 0 0 
0 0 0 0 0 0 0 0 0 0 1 0 0 0 0 0 
0 0 0 0 0 0 0 0 0 0 0 0 0 1 0 0 
0 0 0 0 0 0 0 0 0 0 0 0 0 1 0 0 
0 0 0 0 0 0 0 0 0 1 0 0 0 0 0 0 


Partitions changing!
Partitions changed!
EXTRA: 0 DEFICIENT: 0
0 0 0 0 0 0 0 0 0 1 0 0 0 0 0 0 
0 0 0 0 0 0 0 0 0 0 1 0 0 0 0 0 
0 0 0 0 0 0 0 0 0 0 0 0 0 1 0 0 
0 0 0 0 0 0 0 0 0 0 0 0 0 1 0 0 
0 0 0 0 0 0 0 0 0 1 0 0 0 0 0 0 


Heartbeat CPU 1 instructions: 120000001 cycles: 145427176 heartbeat IPC: 0.565836 cumulative IPC: 0.513954 (Simulation time: 0 hr 13 min 8 sec) 
Heartbeat CPU 0 instructions: 190000001 cycles: 146841295 heartbeat IPC: 1.03441 cumulative IPC: 1.07856 (Simulation time: 0 hr 13 min 12 sec) 
Partitions changing!
Partitions changed!
EXTRA: 0 DEFICIENT: 0
0 0 0 0 0 0 0 0 0 1 0 0 0 0 0 0 
0 0 0 0 0 0 0 0 0 0 1 0 0 0 0 0 
0 0 0 0 0 0 0 0 0 0 0 0 0 1 0 0 
0 0 0 0 0 0 0 0 0 0 0 0 0 1 0 0 
0 0 0 0 0 0 0 0 0 1 0 0 0 0 0 0 


Partitions changing!
Partitions changed!
EXTRA: 0 DEFICIENT: 0
0 0 0 0 0 0 0 0 0 1 0 0 0 0 0 0 
0 0 0 0 0 0 0 0 0 0 1 0 0 0 0 0 
0 0 0 0 0 0 0 0 0 0 0 0 0 1 0 0 
0 0 0 0 0 0 0 0 0 0 0 0 0 1 0 0 
0 0 0 0 0 0 0 0 0 1 0 0 0 0 0 0 


Heartbeat CPU 0 instructions: 200000001 cycles: 156941566 heartbeat IPC: 0.990072 cumulative IPC: 1.07218 (Simulation time: 0 hr 13 min 45 sec) 
Partitions changing!
Partitions changed!
EXTRA: 0 DEFICIENT: 0
0 0 0 0 0 0 0 0 0 1 0 0 0 0 0 0 
0 0 0 0 0 0 0 0 0 0 1 0 0 0 0 0 
0 0 0 0 0 0 0 0 0 0 0 0 0 1 0 0 
0 0 0 0 0 0 0 0 0 0 0 0 0 1 0 0 
0 0 0 0 0 0 0 0 0 1 0 0 0 0 0 0 


Heartbeat CPU 1 instructions: 130000001 cycles: 163273711 heartbeat IPC: 0.560333 cumulative IPC: 0.519614 (Simulation time: 0 hr 14 min 6 sec) 
Partitions changing!
Partitions changed!
EXTRA: 0 DEFICIENT: 0
0 0 0 0 0 0 0 0 0 1 0 0 0 0 0 0 
0 0 0 0 0 0 0 0 0 0 1 0 0 0 0 0 
0 0 0 0 0 0 0 0 0 0 0 0 0 1 0 0 
0 0 0 0 0 0 0 0 0 0 0 0 0 1 0 0 
0 0 0 0 0 0 0 0 0 1 0 0 0 0 0 0 


Heartbeat CPU 0 instructions: 210000001 cycles: 166804149 heartbeat IPC: 1.01393 cumulative IPC: 1.06834 (Simulation time: 0 hr 14 min 18 sec) 
Partitions changing!
Partitions changed!
EXTRA: 0 DEFICIENT: 0
0 0 0 0 0 0 0 0 0 1 0 0 0 0 0 0 
0 0 0 0 0 0 0 0 0 0 1 0 0 0 0 0 
0 0 0 0 0 0 0 0 0 0 0 0 0 1 0 0 
0 0 0 0 0 0 0 0 0 0 0 0 0 1 0 0 
0 0 0 0 0 0 0 0 0 1 0 0 0 0 0 0 


Partitions changing!
Partitions changed!
EXTRA: 0 DEFICIENT: 0
0 0 0 0 0 0 0 0 0 1 0 0 0 0 0 0 
0 0 0 0 0 0 0 0 0 0 1 0 0 0 0 0 
0 0 0 0 0 0 0 0 0 0 0 0 0 1 0 0 
0 0 0 0 0 0 0 0 0 0 0 0 0 1 0 0 
0 0 0 0 0 0 0 0 0 1 0 0 0 0 0 0 


Heartbeat CPU 0 instructions: 220000000 cycles: 176096619 heartbeat IPC: 1.07614 cumulative IPC: 1.0688 (Simulation time: 0 hr 14 min 50 sec) 
Partitions changing!
Partitions changed!
EXTRA: 0 DEFICIENT: 0
0 0 0 0 0 0 0 0 0 1 0 0 0 0 0 0 
0 0 0 0 0 0 0 0 0 0 1 0 0 0 0 0 
0 0 0 0 0 0 0 0 0 0 0 0 0 1 0 0 
0 0 0 0 0 0 0 0 0 0 0 0 0 1 0 0 
0 0 0 0 0 0 0 0 0 1 0 0 0 0 0 0 


Heartbeat CPU 1 instructions: 140000000 cycles: 181177063 heartbeat IPC: 0.558555 cumulative IPC: 0.523862 (Simulation time: 0 hr 15 min 6 sec) 
Partitions changing!
Partitions changed!
EXTRA: 0 DEFICIENT: 0
0 0 0 0 0 0 0 0 0 1 0 0 0 0 0 0 
0 0 0 0 0 0 0 0 0 0 1 0 0 0 0 0 
0 0 0 0 0 0 0 0 0 0 0 0 0 1 0 0 
0 0 0 0 0 0 0 0 0 0 0 0 0 1 0 0 
0 0 0 0 0 0 0 0 0 1 0 0 0 0 0 0 


Heartbeat CPU 0 instructions: 230000003 cycles: 186468511 heartbeat IPC: 0.964145 cumulative IPC: 1.06239 (Simulation time: 0 hr 15 min 24 sec) 
Partitions changing!
Partitions changed!
EXTRA: 0 DEFICIENT: 0
0 0 0 0 0 0 0 0 0 1 0 0 0 0 0 0 
0 0 0 0 0 0 0 0 0 0 1 0 0 0 0 0 
0 0 0 0 0 0 0 0 0 0 0 0 0 1 0 0 
0 0 0 0 0 0 0 0 0 0 0 0 0 1 0 0 
0 0 0 0 0 0 0 0 0 1 0 0 0 0 0 0 


Partitions changing!
Partitions changed!
EXTRA: 0 DEFICIENT: 0
0 0 0 0 0 0 0 0 0 1 0 0 0 0 0 0 
0 0 0 0 0 0 0 0 0 0 1 0 0 0 0 0 
0 0 0 0 0 0 0 0 0 0 0 0 0 1 0 0 
0 0 0 0 0 0 0 0 0 0 0 0 0 1 0 0 
0 0 0 0 0 0 0 0 0 1 0 0 0 0 0 0 


Heartbeat CPU 0 instructions: 240000003 cycles: 196181077 heartbeat IPC: 1.02959 cumulative IPC: 1.06061 (Simulation time: 0 hr 15 min 57 sec) 
Heartbeat CPU 1 instructions: 150000000 cycles: 199183852 heartbeat IPC: 0.555346 cumulative IPC: 0.526974 (Simulation time: 0 hr 16 min 7 sec) 
Partitions changing!
Partitions changed!
EXTRA: 0 DEFICIENT: 0
0 0 0 0 0 0 0 0 0 1 0 0 0 0 0 0 
0 0 0 0 0 0 0 0 0 0 1 0 0 0 0 0 
0 0 0 0 0 0 0 0 0 0 0 0 0 1 0 0 
0 0 0 0 0 0 0 0 0 0 0 0 0 1 0 0 
0 0 0 0 0 0 0 0 0 1 0 0 0 0 0 0 


Partitions changing!
Partitions changed!
EXTRA: 0 DEFICIENT: 0
0 0 0 0 0 0 0 0 0 1 0 0 0 0 0 0 
0 0 0 0 0 0 0 0 0 0 1 0 0 0 0 0 
0 0 0 0 0 0 0 0 0 0 0 0 0 1 0 0 
0 0 0 0 0 0 0 0 0 0 0 0 0 1 0 0 
0 0 0 0 0 0 0 0 0 1 0 0 0 0 0 0 


Heartbeat CPU 0 instructions: 250000001 cycles: 207017244 heartbeat IPC: 0.922835 cumulative IPC: 1.05275 (Simulation time: 0 hr 16 min 31 sec) 
Finished CPU 1 instructions: 100000000 cycles: 190009371 cumulative IPC: 0.52629 (Simulation time: 0 hr 16 min 31 sec) 

ChampSim completed all CPUs

Total Simulation Statistics (not including warmup)

CPU 0 cumulative IPC: 1.05273 instructions: 200027920 cycles: 190009370
L1D TOTAL     ACCESS:   52449419  HIT:   50306451  MISS:    2142968
L1D LOAD      ACCESS:   32299300  HIT:   30620087  MISS:    1679213
L1D RFO       ACCESS:   20150119  HIT:   19686364  MISS:     463755
L1D PREFETCH  ACCESS:          0  HIT:          0  MISS:          0
L1D WRITEBACK ACCESS:          0  HIT:          0  MISS:          0
L1I TOTAL     ACCESS:   33991813  HIT:   33991474  MISS:        339
L1I LOAD      ACCESS:   33991813  HIT:   33991474  MISS:        339
L1I RFO       ACCESS:          0  HIT:          0  MISS:          0
L1I PREFETCH  ACCESS:          0  HIT:          0  MISS:          0
L1I WRITEBACK ACCESS:          0  HIT:          0  MISS:          0
L2C TOTAL     ACCESS:    2845833  HIT:    2009011  MISS:     836822
L2C LOAD      ACCESS:    1678943  HIT:    1121268  MISS:     557675
L2C RFO       ACCESS:     463353  HIT:     184846  MISS:     278507
L2C PREFETCH  ACCESS:          0  HIT:          0  MISS:          0
L2C WRITEBACK ACCESS:     703537  HIT:     702897  MISS:        640
LLC TOTAL     ACCESS:    1162247  HIT:     953875  MISS:     208372
LLC LOAD      ACCESS:     557670  HIT:     475404  MISS:      82266
LLC RFO       ACCESS:     278503  HIT:     152840  MISS:     125663
LLC PREFETCH  ACCESS:          0  HIT:          0  MISS:          0
LLC WRITEBACK ACCESS:     326074  HIT:     325631  MISS:        443

CPU 1 cumulative IPC: 0.52629 instructions: 100000000 cycles: 190009371
L1D TOTAL     ACCESS:   16369312  HIT:   10839203  MISS:    5530109
L1D LOAD      ACCESS:    5450666  HIT:    4612376  MISS:     838290
L1D RFO       ACCESS:   10918646  HIT:    6226827  MISS:    4691819
L1D PREFETCH  ACCESS:          0  HIT:          0  MISS:          0
L1D WRITEBACK ACCESS:          0  HIT:          0  MISS:          0
L1I TOTAL     ACCESS:   15105040  HIT:   15105034  MISS:          6
L1I LOAD      ACCESS:   15105040  HIT:   15105034  MISS:          6
L1I RFO       ACCESS:          0  HIT:          0  MISS:          0
L1I PREFETCH  ACCESS:          0  HIT:          0  MISS:          0
L1I WRITEBACK ACCESS:          0  HIT:          0  MISS:          0
L2C TOTAL     ACCESS:   10221937  HIT:    6869743  MISS:    3352194
L2C LOAD      ACCESS:     838296  HIT:        357  MISS:     837939
L2C RFO       ACCESS:    4691815  HIT:    2177692  MISS:    2514123
L2C PREFETCH  ACCESS:          0  HIT:          0  MISS:          0
L2C WRITEBACK ACCESS:    4691826  HIT:    4691694  MISS:        132
LLC TOTAL     ACCESS:    5866400  HIT:     411982  MISS:    5454418
LLC LOAD      ACCESS:     837939  HIT:          0  MISS:     837939
LLC RFO       ACCESS:    2514123  HIT:          1  MISS:    2514122
LLC PREFETCH  ACCESS:          0  HIT:          0  MISS:          0
LLC WRITEBACK ACCESS:    2514338  HIT:     411981  MISS:    2102357

Region of Interest Statistics

CPU 0 cumulative IPC: 1.13613 instructions: 100000002 cycles: 88017887
L1D TOTAL     ACCESS:   28908499  HIT:   28342350  MISS:     566149
L1D LOAD      ACCESS:   15632373  HIT:   15182638  MISS:     449735
L1D RFO       ACCESS:   13276126  HIT:   13159712  MISS:     116414
L1D PREFETCH  ACCESS:          0  HIT:          0  MISS:          0
L1D WRITEBACK ACCESS:          0  HIT:          0  MISS:          0
L1D PREFETCH  REQUESTED:          0  ISSUED:          0  USEFUL:          0  USELESS:          0
L1D AVERAGE MISS LATENCY: 304.736 cycles
L1I TOTAL     ACCESS:   16436382  HIT:   16436053  MISS:        329
L1I LOAD      ACCESS:   16436382  HIT:   16436053  MISS:        329
L1I RFO       ACCESS:          0  HIT:          0  MISS:          0
L1I PREFETCH  ACCESS:          0  HIT:          0  MISS:          0
L1I WRITEBACK ACCESS:          0  HIT:          0  MISS:          0
L1I PREFETCH  REQUESTED:          0  ISSUED:          0  USEFUL:          0  USELESS:          0
L1I AVERAGE MISS LATENCY: 514.611 cycles
L2C TOTAL     ACCESS:     749035  HIT:     434415  MISS:     314620
L2C LOAD      ACCESS:     449809  HIT:     209741  MISS:     240068
L2C RFO       ACCESS:     116294  HIT:      42265  MISS:      74029
L2C PREFETCH  ACCESS:          0  HIT:          0  MISS:          0
L2C WRITEBACK ACCESS:     182932  HIT:     182409  MISS:        523
L2C PREFETCH  REQUESTED:          0  ISSUED:          0  USEFUL:          0  USELESS:          0
L2C AVERAGE MISS LATENCY: 446.002 cycles
LLC TOTAL     ACCESS:     386170  HIT:     279557  MISS:     106613
LLC LOAD      ACCESS:     240068  HIT:     193129  MISS:      46939
LLC RFO       ACCESS:      74029  HIT:      14400  MISS:      59629
LLC PREFETCH  ACCESS:          0  HIT:          0  MISS:          0
LLC WRITEBACK ACCESS:      72073  HIT:      72028  MISS:         45
LLC PREFETCH  REQUESTED:          0  ISSUED:          0  USEFUL:          0  USELESS:          0
LLC AVERAGE MISS LATENCY: 15693.5 cycles
Major fault: 0 Minor fault: 1992

CPU 1 cumulative IPC: 0.52629 instructions: 100000000 cycles: 190009371
L1D TOTAL     ACCESS:   16369312  HIT:   10839203  MISS:    5530109
L1D LOAD      ACCESS:    5450666  HIT:    4612376  MISS:     838290
L1D RFO       ACCESS:   10918646  HIT:    6226827  MISS:    4691819
L1D PREFETCH  ACCESS:          0  HIT:          0  MISS:          0
L1D WRITEBACK ACCESS:          0  HIT:          0  MISS:          0
L1D PREFETCH  REQUESTED:          0  ISSUED:          0  USEFUL:          0  USELESS:          0
L1D AVERAGE MISS LATENCY: 317.308 cycles
L1I TOTAL     ACCESS:   15105040  HIT:   15105034  MISS:          6
L1I LOAD      ACCESS:   15105040  HIT:   15105034  MISS:          6
L1I RFO       ACCESS:          0  HIT:          0  MISS:          0
L1I PREFETCH  ACCESS:          0  HIT:          0  MISS:          0
L1I WRITEBACK ACCESS:          0  HIT:          0  MISS:          0
L1I PREFETCH  REQUESTED:          0  ISSUED:          0  USEFUL:          0  USELESS:          0
L1I AVERAGE MISS LATENCY: 340.167 cycles
L2C TOTAL     ACCESS:   10221937  HIT:    6869743  MISS:    3352194
L2C LOAD      ACCESS:     838296  HIT:        357  MISS:     837939
L2C RFO       ACCESS:    4691815  HIT:    2177692  MISS:    2514123
L2C PREFETCH  ACCESS:          0  HIT:          0  MISS:          0
L2C WRITEBACK ACCESS:    4691826  HIT:    4691694  MISS:        132
L2C PREFETCH  REQUESTED:          0  ISSUED:          0  USEFUL:          0  USELESS:          0
L2C AVERAGE MISS LATENCY: 496.034 cycles
LLC TOTAL     ACCESS:    5866400  HIT:     411982  MISS:    5454418
LLC LOAD      ACCESS:     837939  HIT:          0  MISS:     837939
LLC RFO       ACCESS:    2514123  HIT:          1  MISS:    2514122
LLC PREFETCH  ACCESS:          0  HIT:          0  MISS:          0
LLC WRITEBACK ACCESS:    2514338  HIT:     411981  MISS:    2102357
LLC PREFETCH  REQUESTED:          0  ISSUED:          0  USEFUL:          0  USELESS:          0
LLC AVERAGE MISS LATENCY: 306.748 cycles
Major fault: 0 Minor fault: 40241

DRAM Statistics
 CHANNEL 0
 RQ ROW_BUFFER_HIT:     409341  ROW_BUFFER_MISS:    3150611
 DBUS_CONGESTED:    3697045
 WQ ROW_BUFFER_HIT:     670053  ROW_BUFFER_MISS:    1972101  FULL:          0

 AVG_CONGESTED_CYCLE: 6

CPU 0 Branch Prediction Accuracy: 93.0294% MPKI: 9.88716 Average ROB Occupancy at Mispredict: 25.9744

Branch types
NOT_BRANCH: 171655525 85.8158%
BRANCH_DIRECT_JUMP: 2482748 1.2412%
BRANCH_INDIRECT: 0 0%
BRANCH_CONDITIONAL: 24350984 12.1738%
BRANCH_DIRECT_CALL: 769241 0.384567%
BRANCH_INDIRECT_CALL: 0 0%
BRANCH_RETURN: 769239 0.384566%
BRANCH_OTHER: 0 0%


CPU 1 Branch Prediction Accuracy: 99.0505% MPKI: 0.115474 Average ROB Occupancy at Mispredict: 183.633

Branch types
NOT_BRANCH: 98734832 98.7348%
BRANCH_DIRECT_JUMP: 306554 0.306554%
BRANCH_INDIRECT: 0 0%
BRANCH_CONDITIONAL: 958359 0.958359%
BRANCH_DIRECT_CALL: 2 2e-06%
BRANCH_INDIRECT_CALL: 0 0%
BRANCH_RETURN: 2 2e-06%
BRANCH_OTHER: 0 0%

